<?xml version="1.0" encoding="UTF-8"?>

<!-- generated on 2021-11-23 10:38:03 by Eclipse SUMO netedit Version 1.10.0
<configuration xmlns:xsi="http://www.w3.org/2001/XMLSchema-instance" xsi:noNamespaceSchemaLocation="http://sumo.dlr.de/xsd/netconvertConfiguration.xsd">

    <input>
        <sumo-net-file value="large_grid2.net.xml"/>
    </input>

    <output>
        <output-file value="large_grid2.net.xml"/>
    </output>

    <processing>
        <geometry.min-radius.fix.railways value="false"/>
        <geometry.max-grade.fix value="false"/>
        <offset.disable-normalization value="true"/>
        <lefthand value="false"/>
    </processing>

    <junctions>
        <no-turnarounds value="true"/>
        <junctions.corner-detail value="5"/>
        <junctions.limit-turn-speed value="5.5"/>
        <rectangular-lane-cut value="false"/>
    </junctions>

    <pedestrian>
        <walkingareas value="false"/>
    </pedestrian>

    <report>
        <aggregate-warnings value="5"/>
    </report>

</configuration>
-->

<net version="1.9" junctionCornerDetail="5" limitTurnSpeed="5.50" xmlns:xsi="http://www.w3.org/2001/XMLSchema-instance" xsi:noNamespaceSchemaLocation="http://sumo.dlr.de/xsd/net_file.xsd">

    <location netOffset="0.00,0.00" convBoundary="-184.11,0.00,2184.35,2000.00" origBoundary="0.00,0.00,2000.00,2000.00" projParameter="!"/>

    <edge id=":A0_0" function="internal">
        <lane id=":A0_0_0" index="0" speed="6.08" length="7.74" shape="-1.60,3.20 -1.30,1.10 -0.40,-0.40 1.10,-1.30 3.20,-1.60"/>
    </edge>
    <edge id=":A0_1" function="internal">
        <lane id=":A0_1_0" index="0" speed="3.90" length="2.58" shape="3.20,1.60 2.50,1.70 2.00,2.00 1.70,2.50 1.60,3.20"/>
    </edge>
    <edge id=":A1_0" function="internal">
        <lane id=":A1_0_0" index="0" speed="13.89" length="14.40" shape="-1.60,107.20 -1.60,92.80"/>
    </edge>
    <edge id=":A1_1" function="internal">
        <lane id=":A1_1_0" index="0" speed="8.00" length="5.93" shape="-1.60,107.20 -1.05,103.35 0.00,101.60"/>
    </edge>
    <edge id=":A1_6" function="internal">
        <lane id=":A1_6_0" index="0" speed="8.00" length="8.26" shape="0.00,101.60 0.60,100.60 3.35,98.95 7.20,98.40"/>
    </edge>
    <edge id=":A1_2" function="internal">
        <lane id=":A1_2_0" index="0" speed="6.51" length="9.03" shape="7.20,101.60 4.75,101.95 3.00,103.00 1.95,104.75 1.60,107.20"/>
    </edge>
    <edge id=":A1_3" function="internal">
        <lane id=":A1_3_0" index="0" speed="8.00" length="14.19" shape="7.20,101.60 3.35,101.05 0.60,99.40 -1.05,96.65 -1.60,92.80"/>
    </edge>
    <edge id=":A1_4" function="internal">
        <lane id=":A1_4_0" index="0" speed="6.51" length="9.03" shape="1.60,92.80 1.95,95.25 3.00,97.00 4.75,98.05 7.20,98.40"/>
    </edge>
    <edge id=":A1_5" function="internal">
        <lane id=":A1_5_0" index="0" speed="13.89" length="14.40" shape="1.60,92.80 1.60,107.20"/>
    </edge>
    <edge id=":A10_0" function="internal">
        <lane id=":A10_0_0" index="0" speed="6.49" length="9.03" shape="-1.60,1013.62 -1.95,1011.17 -3.00,1009.42 -4.76,1008.38 -7.21,1008.05"/>
    </edge>
    <edge id=":A10_1" function="internal">
        <lane id=":A10_1_0" index="0" speed="13.89" length="27.22" shape="-1.60,1013.62 -1.60,986.40"/>
    </edge>
    <edge id=":A10_2" function="internal">
        <lane id=":A10_2_0" index="0" speed="9.32" length="9.89" shape="-1.60,1013.62 -1.05,1006.96 -0.00,1003.94"/>
    </edge>
    <edge id=":A10_14" function="internal">
        <lane id=":A10_14_0" index="0" speed="9.32" length="9.76" shape="-0.00,1003.94 0.60,1002.21 3.35,999.35 7.20,998.40"/>
    </edge>
    <edge id=":A10_3" function="internal">
        <lane id=":A10_3_0" index="0" speed="6.51" length="9.05" shape="7.20,1008.00 4.75,1008.35 3.00,1009.41 1.95,1011.16 1.60,1013.62"/>
    </edge>
    <edge id=":A10_4" function="internal">
        <lane id=":A10_4_0" index="0" speed="13.89" length="14.42" shape="7.20,1008.00 -7.21,1008.05"/>
        <lane id=":A10_4_1" index="1" speed="13.89" length="14.42" shape="7.20,1004.80 -7.23,1004.85"/>
    </edge>
    <edge id=":A10_6" function="internal">
        <lane id=":A10_6_0" index="0" speed="9.32" length="19.63" shape="7.20,1001.60 3.35,1000.65 0.60,997.80 -1.05,993.05 -1.60,986.40"/>
    </edge>
    <edge id=":A10_7" function="internal">
        <lane id=":A10_7_0" index="0" speed="6.51" length="9.03" shape="1.60,986.40 1.95,988.85 3.00,990.60 4.75,991.65 7.20,992.00"/>
    </edge>
    <edge id=":A10_8" function="internal">
        <lane id=":A10_8_0" index="0" speed="13.89" length="27.22" shape="1.60,986.40 1.60,1013.62"/>
    </edge>
    <edge id=":A10_9" function="internal">
        <lane id=":A10_9_0" index="0" speed="9.36" length="9.85" shape="1.60,986.40 1.05,993.05 0.00,996.05"/>
    </edge>
    <edge id=":A10_15" function="internal">
        <lane id=":A10_15_0" index="0" speed="9.36" length="9.84" shape="0.00,996.05 -0.61,997.81 -3.38,1000.67 -7.25,1001.65"/>
    </edge>
    <edge id=":A10_10" function="internal">
        <lane id=":A10_10_0" index="0" speed="6.56" length="9.15" shape="-7.32,992.05 -4.82,991.68 -3.03,990.62 -1.96,988.86 -1.60,986.40"/>
    </edge>
    <edge id=":A10_11" function="internal">
        <lane id=":A10_11_0" index="0" speed="13.89" length="14.51" shape="-7.32,992.05 7.20,992.00"/>
        <lane id=":A10_11_1" index="1" speed="13.89" length="14.51" shape="-7.30,995.25 7.20,995.20"/>
    </edge>
    <edge id=":A10_13" function="internal">
        <lane id=":A10_13_0" index="0" speed="9.31" length="19.68" shape="-7.28,998.45 -3.39,999.37 -0.62,1002.21 1.05,1006.96 1.60,1013.62"/>
    </edge>
    <edge id=":A11_0" function="internal">
        <lane id=":A11_0_0" index="0" speed="13.89" length="14.40" shape="-1.60,1107.20 -1.60,1092.80"/>
    </edge>
    <edge id=":A11_1" function="internal">
        <lane id=":A11_1_0" index="0" speed="8.00" length="5.93" shape="-1.60,1107.20 -1.05,1103.35 0.00,1101.60"/>
    </edge>
    <edge id=":A11_6" function="internal">
        <lane id=":A11_6_0" index="0" speed="8.00" length="8.26" shape="0.00,1101.60 0.60,1100.60 3.35,1098.95 7.20,1098.40"/>
    </edge>
    <edge id=":A11_2" function="internal">
        <lane id=":A11_2_0" index="0" speed="6.51" length="9.03" shape="7.20,1101.60 4.75,1101.95 3.00,1103.00 1.95,1104.75 1.60,1107.20"/>
    </edge>
    <edge id=":A11_3" function="internal">
        <lane id=":A11_3_0" index="0" speed="8.00" length="14.19" shape="7.20,1101.60 3.35,1101.05 0.60,1099.40 -1.05,1096.65 -1.60,1092.80"/>
    </edge>
    <edge id=":A11_4" function="internal">
        <lane id=":A11_4_0" index="0" speed="6.51" length="9.03" shape="1.60,1092.80 1.95,1095.25 3.00,1097.00 4.75,1098.05 7.20,1098.40"/>
    </edge>
    <edge id=":A11_5" function="internal">
        <lane id=":A11_5_0" index="0" speed="13.89" length="14.40" shape="1.60,1092.80 1.60,1107.20"/>
    </edge>
    <edge id=":A12_0" function="internal">
        <lane id=":A12_0_0" index="0" speed="13.89" length="14.40" shape="-1.60,1207.20 -1.60,1192.80"/>
    </edge>
    <edge id=":A12_1" function="internal">
        <lane id=":A12_1_0" index="0" speed="8.00" length="5.93" shape="-1.60,1207.20 -1.05,1203.35 0.00,1201.60"/>
    </edge>
    <edge id=":A12_6" function="internal">
        <lane id=":A12_6_0" index="0" speed="8.00" length="8.26" shape="0.00,1201.60 0.60,1200.60 3.35,1198.95 7.20,1198.40"/>
    </edge>
    <edge id=":A12_2" function="internal">
        <lane id=":A12_2_0" index="0" speed="6.51" length="9.03" shape="7.20,1201.60 4.75,1201.95 3.00,1203.00 1.95,1204.75 1.60,1207.20"/>
    </edge>
    <edge id=":A12_3" function="internal">
        <lane id=":A12_3_0" index="0" speed="8.00" length="14.19" shape="7.20,1201.60 3.35,1201.05 0.60,1199.40 -1.05,1196.65 -1.60,1192.80"/>
    </edge>
    <edge id=":A12_4" function="internal">
        <lane id=":A12_4_0" index="0" speed="6.51" length="9.03" shape="1.60,1192.80 1.95,1195.25 3.00,1197.00 4.75,1198.05 7.20,1198.40"/>
    </edge>
    <edge id=":A12_5" function="internal">
        <lane id=":A12_5_0" index="0" speed="13.89" length="14.40" shape="1.60,1192.80 1.60,1207.20"/>
    </edge>
    <edge id=":A13_0" function="internal">
        <lane id=":A13_0_0" index="0" speed="13.89" length="14.40" shape="-1.60,1307.20 -1.60,1292.80"/>
    </edge>
    <edge id=":A13_1" function="internal">
        <lane id=":A13_1_0" index="0" speed="8.00" length="5.93" shape="-1.60,1307.20 -1.05,1303.35 0.00,1301.60"/>
    </edge>
    <edge id=":A13_6" function="internal">
        <lane id=":A13_6_0" index="0" speed="8.00" length="8.26" shape="0.00,1301.60 0.60,1300.60 3.35,1298.95 7.20,1298.40"/>
    </edge>
    <edge id=":A13_2" function="internal">
        <lane id=":A13_2_0" index="0" speed="6.51" length="9.03" shape="7.20,1301.60 4.75,1301.95 3.00,1303.00 1.95,1304.75 1.60,1307.20"/>
    </edge>
    <edge id=":A13_3" function="internal">
        <lane id=":A13_3_0" index="0" speed="8.00" length="14.19" shape="7.20,1301.60 3.35,1301.05 0.60,1299.40 -1.05,1296.65 -1.60,1292.80"/>
    </edge>
    <edge id=":A13_4" function="internal">
        <lane id=":A13_4_0" index="0" speed="6.51" length="9.03" shape="1.60,1292.80 1.95,1295.25 3.00,1297.00 4.75,1298.05 7.20,1298.40"/>
    </edge>
    <edge id=":A13_5" function="internal">
        <lane id=":A13_5_0" index="0" speed="13.89" length="14.40" shape="1.60,1292.80 1.60,1307.20"/>
    </edge>
    <edge id=":A14_0" function="internal">
        <lane id=":A14_0_0" index="0" speed="13.89" length="14.40" shape="-1.60,1407.20 -1.60,1392.80"/>
    </edge>
    <edge id=":A14_1" function="internal">
        <lane id=":A14_1_0" index="0" speed="8.00" length="5.93" shape="-1.60,1407.20 -1.05,1403.35 0.00,1401.60"/>
    </edge>
    <edge id=":A14_6" function="internal">
        <lane id=":A14_6_0" index="0" speed="8.00" length="8.26" shape="0.00,1401.60 0.60,1400.60 3.35,1398.95 7.20,1398.40"/>
    </edge>
    <edge id=":A14_2" function="internal">
        <lane id=":A14_2_0" index="0" speed="6.51" length="9.03" shape="7.20,1401.60 4.75,1401.95 3.00,1403.00 1.95,1404.75 1.60,1407.20"/>
    </edge>
    <edge id=":A14_3" function="internal">
        <lane id=":A14_3_0" index="0" speed="8.00" length="14.19" shape="7.20,1401.60 3.35,1401.05 0.60,1399.40 -1.05,1396.65 -1.60,1392.80"/>
    </edge>
    <edge id=":A14_4" function="internal">
        <lane id=":A14_4_0" index="0" speed="6.51" length="9.03" shape="1.60,1392.80 1.95,1395.25 3.00,1397.00 4.75,1398.05 7.20,1398.40"/>
    </edge>
    <edge id=":A14_5" function="internal">
        <lane id=":A14_5_0" index="0" speed="13.89" length="14.40" shape="1.60,1392.80 1.60,1407.20"/>
    </edge>
    <edge id=":A15_0" function="internal">
        <lane id=":A15_0_0" index="0" speed="13.89" length="14.40" shape="-1.60,1507.20 -1.60,1492.80"/>
    </edge>
    <edge id=":A15_1" function="internal">
        <lane id=":A15_1_0" index="0" speed="8.00" length="5.93" shape="-1.60,1507.20 -1.05,1503.35 0.00,1501.60"/>
    </edge>
    <edge id=":A15_6" function="internal">
        <lane id=":A15_6_0" index="0" speed="8.00" length="8.26" shape="0.00,1501.60 0.60,1500.60 3.35,1498.95 7.20,1498.40"/>
    </edge>
    <edge id=":A15_2" function="internal">
        <lane id=":A15_2_0" index="0" speed="6.51" length="9.03" shape="7.20,1501.60 4.75,1501.95 3.00,1503.00 1.95,1504.75 1.60,1507.20"/>
    </edge>
    <edge id=":A15_3" function="internal">
        <lane id=":A15_3_0" index="0" speed="8.00" length="14.19" shape="7.20,1501.60 3.35,1501.05 0.60,1499.40 -1.05,1496.65 -1.60,1492.80"/>
    </edge>
    <edge id=":A15_4" function="internal">
        <lane id=":A15_4_0" index="0" speed="6.51" length="9.03" shape="1.60,1492.80 1.95,1495.25 3.00,1497.00 4.75,1498.05 7.20,1498.40"/>
    </edge>
    <edge id=":A15_5" function="internal">
        <lane id=":A15_5_0" index="0" speed="13.89" length="14.40" shape="1.60,1492.80 1.60,1507.20"/>
    </edge>
    <edge id=":A16_0" function="internal">
        <lane id=":A16_0_0" index="0" speed="13.89" length="14.40" shape="-1.60,1607.20 -1.60,1592.80"/>
    </edge>
    <edge id=":A16_1" function="internal">
        <lane id=":A16_1_0" index="0" speed="8.00" length="5.93" shape="-1.60,1607.20 -1.05,1603.35 0.00,1601.60"/>
    </edge>
    <edge id=":A16_6" function="internal">
        <lane id=":A16_6_0" index="0" speed="8.00" length="8.26" shape="0.00,1601.60 0.60,1600.60 3.35,1598.95 7.20,1598.40"/>
    </edge>
    <edge id=":A16_2" function="internal">
        <lane id=":A16_2_0" index="0" speed="6.51" length="9.03" shape="7.20,1601.60 4.75,1601.95 3.00,1603.00 1.95,1604.75 1.60,1607.20"/>
    </edge>
    <edge id=":A16_3" function="internal">
        <lane id=":A16_3_0" index="0" speed="8.00" length="14.19" shape="7.20,1601.60 3.35,1601.05 0.60,1599.40 -1.05,1596.65 -1.60,1592.80"/>
    </edge>
    <edge id=":A16_4" function="internal">
        <lane id=":A16_4_0" index="0" speed="6.51" length="9.03" shape="1.60,1592.80 1.95,1595.25 3.00,1597.00 4.75,1598.05 7.20,1598.40"/>
    </edge>
    <edge id=":A16_5" function="internal">
        <lane id=":A16_5_0" index="0" speed="13.89" length="14.40" shape="1.60,1592.80 1.60,1607.20"/>
    </edge>
    <edge id=":A17_0" function="internal">
        <lane id=":A17_0_0" index="0" speed="13.89" length="14.40" shape="-1.60,1707.20 -1.60,1692.80"/>
    </edge>
    <edge id=":A17_1" function="internal">
        <lane id=":A17_1_0" index="0" speed="8.00" length="5.93" shape="-1.60,1707.20 -1.05,1703.35 0.00,1701.60"/>
    </edge>
    <edge id=":A17_6" function="internal">
        <lane id=":A17_6_0" index="0" speed="8.00" length="8.26" shape="0.00,1701.60 0.60,1700.60 3.35,1698.95 7.20,1698.40"/>
    </edge>
    <edge id=":A17_2" function="internal">
        <lane id=":A17_2_0" index="0" speed="6.51" length="9.03" shape="7.20,1701.60 4.75,1701.95 3.00,1703.00 1.95,1704.75 1.60,1707.20"/>
    </edge>
    <edge id=":A17_3" function="internal">
        <lane id=":A17_3_0" index="0" speed="8.00" length="14.19" shape="7.20,1701.60 3.35,1701.05 0.60,1699.40 -1.05,1696.65 -1.60,1692.80"/>
    </edge>
    <edge id=":A17_4" function="internal">
        <lane id=":A17_4_0" index="0" speed="6.51" length="9.03" shape="1.60,1692.80 1.95,1695.25 3.00,1697.00 4.75,1698.05 7.20,1698.40"/>
    </edge>
    <edge id=":A17_5" function="internal">
        <lane id=":A17_5_0" index="0" speed="13.89" length="14.40" shape="1.60,1692.80 1.60,1707.20"/>
    </edge>
    <edge id=":A18_0" function="internal">
        <lane id=":A18_0_0" index="0" speed="13.89" length="14.40" shape="-1.60,1807.20 -1.60,1792.80"/>
    </edge>
    <edge id=":A18_1" function="internal">
        <lane id=":A18_1_0" index="0" speed="8.00" length="5.93" shape="-1.60,1807.20 -1.05,1803.35 0.00,1801.60"/>
    </edge>
    <edge id=":A18_6" function="internal">
        <lane id=":A18_6_0" index="0" speed="8.00" length="8.26" shape="0.00,1801.60 0.60,1800.60 3.35,1798.95 7.20,1798.40"/>
    </edge>
    <edge id=":A18_2" function="internal">
        <lane id=":A18_2_0" index="0" speed="6.51" length="9.03" shape="7.20,1801.60 4.75,1801.95 3.00,1803.00 1.95,1804.75 1.60,1807.20"/>
    </edge>
    <edge id=":A18_3" function="internal">
        <lane id=":A18_3_0" index="0" speed="8.00" length="14.19" shape="7.20,1801.60 3.35,1801.05 0.60,1799.40 -1.05,1796.65 -1.60,1792.80"/>
    </edge>
    <edge id=":A18_4" function="internal">
        <lane id=":A18_4_0" index="0" speed="6.51" length="9.03" shape="1.60,1792.80 1.95,1795.25 3.00,1797.00 4.75,1798.05 7.20,1798.40"/>
    </edge>
    <edge id=":A18_5" function="internal">
        <lane id=":A18_5_0" index="0" speed="13.89" length="14.40" shape="1.60,1792.80 1.60,1807.20"/>
    </edge>
    <edge id=":A19_0" function="internal">
        <lane id=":A19_0_0" index="0" speed="13.89" length="14.40" shape="-1.60,1907.20 -1.60,1892.80"/>
    </edge>
    <edge id=":A19_1" function="internal">
        <lane id=":A19_1_0" index="0" speed="8.00" length="5.93" shape="-1.60,1907.20 -1.05,1903.35 0.00,1901.60"/>
    </edge>
    <edge id=":A19_6" function="internal">
        <lane id=":A19_6_0" index="0" speed="8.00" length="8.26" shape="0.00,1901.60 0.60,1900.60 3.35,1898.95 7.20,1898.40"/>
    </edge>
    <edge id=":A19_2" function="internal">
        <lane id=":A19_2_0" index="0" speed="6.51" length="9.03" shape="7.20,1901.60 4.75,1901.95 3.00,1903.00 1.95,1904.75 1.60,1907.20"/>
    </edge>
    <edge id=":A19_3" function="internal">
        <lane id=":A19_3_0" index="0" speed="8.00" length="14.19" shape="7.20,1901.60 3.35,1901.05 0.60,1899.40 -1.05,1896.65 -1.60,1892.80"/>
    </edge>
    <edge id=":A19_4" function="internal">
        <lane id=":A19_4_0" index="0" speed="6.51" length="9.03" shape="1.60,1892.80 1.95,1895.25 3.00,1897.00 4.75,1898.05 7.20,1898.40"/>
    </edge>
    <edge id=":A19_5" function="internal">
        <lane id=":A19_5_0" index="0" speed="13.89" length="14.40" shape="1.60,1892.80 1.60,1907.20"/>
    </edge>
    <edge id=":A2_0" function="internal">
        <lane id=":A2_0_0" index="0" speed="13.89" length="14.40" shape="-1.60,207.20 -1.60,192.80"/>
    </edge>
    <edge id=":A2_1" function="internal">
        <lane id=":A2_1_0" index="0" speed="8.00" length="5.93" shape="-1.60,207.20 -1.05,203.35 0.00,201.60"/>
    </edge>
    <edge id=":A2_6" function="internal">
        <lane id=":A2_6_0" index="0" speed="8.00" length="8.26" shape="0.00,201.60 0.60,200.60 3.35,198.95 7.20,198.40"/>
    </edge>
    <edge id=":A2_2" function="internal">
        <lane id=":A2_2_0" index="0" speed="6.51" length="9.03" shape="7.20,201.60 4.75,201.95 3.00,203.00 1.95,204.75 1.60,207.20"/>
    </edge>
    <edge id=":A2_3" function="internal">
        <lane id=":A2_3_0" index="0" speed="8.00" length="14.19" shape="7.20,201.60 3.35,201.05 0.60,199.40 -1.05,196.65 -1.60,192.80"/>
    </edge>
    <edge id=":A2_4" function="internal">
        <lane id=":A2_4_0" index="0" speed="6.51" length="9.03" shape="1.60,192.80 1.95,195.25 3.00,197.00 4.75,198.05 7.20,198.40"/>
    </edge>
    <edge id=":A2_5" function="internal">
        <lane id=":A2_5_0" index="0" speed="13.89" length="14.40" shape="1.60,192.80 1.60,207.20"/>
    </edge>
    <edge id=":A20_0" function="internal">
        <lane id=":A20_0_0" index="0" speed="6.08" length="7.74" shape="3.20,2001.60 1.10,2001.30 -0.40,2000.40 -1.30,1998.90 -1.60,1996.80"/>
    </edge>
    <edge id=":A20_1" function="internal">
        <lane id=":A20_1_0" index="0" speed="3.90" length="2.58" shape="1.60,1996.80 1.70,1997.50 2.00,1998.00 2.50,1998.30 3.20,1998.40"/>
    </edge>
    <edge id=":A3_0" function="internal">
        <lane id=":A3_0_0" index="0" speed="13.89" length="14.40" shape="-1.60,307.20 -1.60,292.80"/>
    </edge>
    <edge id=":A3_1" function="internal">
        <lane id=":A3_1_0" index="0" speed="8.00" length="5.93" shape="-1.60,307.20 -1.05,303.35 -0.00,301.60"/>
    </edge>
    <edge id=":A3_6" function="internal">
        <lane id=":A3_6_0" index="0" speed="8.00" length="8.26" shape="-0.00,301.60 0.60,300.60 3.35,298.95 7.20,298.40"/>
    </edge>
    <edge id=":A3_2" function="internal">
        <lane id=":A3_2_0" index="0" speed="6.51" length="9.03" shape="7.20,301.60 4.75,301.95 3.00,303.00 1.95,304.75 1.60,307.20"/>
    </edge>
    <edge id=":A3_3" function="internal">
        <lane id=":A3_3_0" index="0" speed="8.00" length="14.19" shape="7.20,301.60 3.35,301.05 0.60,299.40 -1.05,296.65 -1.60,292.80"/>
    </edge>
    <edge id=":A3_4" function="internal">
        <lane id=":A3_4_0" index="0" speed="6.51" length="9.03" shape="1.60,292.80 1.95,295.25 3.00,297.00 4.75,298.05 7.20,298.40"/>
    </edge>
    <edge id=":A3_5" function="internal">
        <lane id=":A3_5_0" index="0" speed="13.89" length="14.40" shape="1.60,292.80 1.60,307.20"/>
    </edge>
    <edge id=":A4_0" function="internal">
        <lane id=":A4_0_0" index="0" speed="13.89" length="14.40" shape="-1.60,407.20 -1.60,392.80"/>
    </edge>
    <edge id=":A4_1" function="internal">
        <lane id=":A4_1_0" index="0" speed="8.00" length="5.93" shape="-1.60,407.20 -1.05,403.35 -0.00,401.60"/>
    </edge>
    <edge id=":A4_6" function="internal">
        <lane id=":A4_6_0" index="0" speed="8.00" length="8.26" shape="-0.00,401.60 0.60,400.60 3.35,398.95 7.20,398.40"/>
    </edge>
    <edge id=":A4_2" function="internal">
        <lane id=":A4_2_0" index="0" speed="6.51" length="9.03" shape="7.20,401.60 4.75,401.95 3.00,403.00 1.95,404.75 1.60,407.20"/>
    </edge>
    <edge id=":A4_3" function="internal">
        <lane id=":A4_3_0" index="0" speed="8.00" length="14.19" shape="7.20,401.60 3.35,401.05 0.60,399.40 -1.05,396.65 -1.60,392.80"/>
    </edge>
    <edge id=":A4_4" function="internal">
        <lane id=":A4_4_0" index="0" speed="6.51" length="9.03" shape="1.60,392.80 1.95,395.25 3.00,397.00 4.75,398.05 7.20,398.40"/>
    </edge>
    <edge id=":A4_5" function="internal">
        <lane id=":A4_5_0" index="0" speed="13.89" length="14.40" shape="1.60,392.80 1.60,407.20"/>
    </edge>
    <edge id=":A5_0" function="internal">
        <lane id=":A5_0_0" index="0" speed="13.89" length="14.40" shape="-1.60,507.20 -1.60,492.80"/>
    </edge>
    <edge id=":A5_1" function="internal">
        <lane id=":A5_1_0" index="0" speed="8.00" length="5.93" shape="-1.60,507.20 -1.05,503.35 -0.00,501.60"/>
    </edge>
    <edge id=":A5_6" function="internal">
        <lane id=":A5_6_0" index="0" speed="8.00" length="8.26" shape="-0.00,501.60 0.60,500.60 3.35,498.95 7.20,498.40"/>
    </edge>
    <edge id=":A5_2" function="internal">
        <lane id=":A5_2_0" index="0" speed="6.51" length="9.03" shape="7.20,501.60 4.75,501.95 3.00,503.00 1.95,504.75 1.60,507.20"/>
    </edge>
    <edge id=":A5_3" function="internal">
        <lane id=":A5_3_0" index="0" speed="8.00" length="14.19" shape="7.20,501.60 3.35,501.05 0.60,499.40 -1.05,496.65 -1.60,492.80"/>
    </edge>
    <edge id=":A5_4" function="internal">
        <lane id=":A5_4_0" index="0" speed="6.51" length="9.03" shape="1.60,492.80 1.95,495.25 3.00,497.00 4.75,498.05 7.20,498.40"/>
    </edge>
    <edge id=":A5_5" function="internal">
        <lane id=":A5_5_0" index="0" speed="13.89" length="14.40" shape="1.60,492.80 1.60,507.20"/>
    </edge>
    <edge id=":A6_0" function="internal">
        <lane id=":A6_0_0" index="0" speed="13.89" length="14.40" shape="-1.60,607.20 -1.60,592.80"/>
    </edge>
    <edge id=":A6_1" function="internal">
        <lane id=":A6_1_0" index="0" speed="8.00" length="5.93" shape="-1.60,607.20 -1.05,603.35 0.00,601.60"/>
    </edge>
    <edge id=":A6_6" function="internal">
        <lane id=":A6_6_0" index="0" speed="8.00" length="8.26" shape="0.00,601.60 0.60,600.60 3.35,598.95 7.20,598.40"/>
    </edge>
    <edge id=":A6_2" function="internal">
        <lane id=":A6_2_0" index="0" speed="6.51" length="9.03" shape="7.20,601.60 4.75,601.95 3.00,603.00 1.95,604.75 1.60,607.20"/>
    </edge>
    <edge id=":A6_3" function="internal">
        <lane id=":A6_3_0" index="0" speed="8.00" length="14.19" shape="7.20,601.60 3.35,601.05 0.60,599.40 -1.05,596.65 -1.60,592.80"/>
    </edge>
    <edge id=":A6_4" function="internal">
        <lane id=":A6_4_0" index="0" speed="6.51" length="9.03" shape="1.60,592.80 1.95,595.25 3.00,597.00 4.75,598.05 7.20,598.40"/>
    </edge>
    <edge id=":A6_5" function="internal">
        <lane id=":A6_5_0" index="0" speed="13.89" length="14.40" shape="1.60,592.80 1.60,607.20"/>
    </edge>
    <edge id=":A7_0" function="internal">
        <lane id=":A7_0_0" index="0" speed="13.89" length="14.40" shape="-1.60,707.20 -1.60,692.80"/>
    </edge>
    <edge id=":A7_1" function="internal">
        <lane id=":A7_1_0" index="0" speed="8.00" length="5.93" shape="-1.60,707.20 -1.05,703.35 0.00,701.60"/>
    </edge>
    <edge id=":A7_6" function="internal">
        <lane id=":A7_6_0" index="0" speed="8.00" length="8.26" shape="0.00,701.60 0.60,700.60 3.35,698.95 7.20,698.40"/>
    </edge>
    <edge id=":A7_2" function="internal">
        <lane id=":A7_2_0" index="0" speed="6.51" length="9.03" shape="7.20,701.60 4.75,701.95 3.00,703.00 1.95,704.75 1.60,707.20"/>
    </edge>
    <edge id=":A7_3" function="internal">
        <lane id=":A7_3_0" index="0" speed="8.00" length="14.19" shape="7.20,701.60 3.35,701.05 0.60,699.40 -1.05,696.65 -1.60,692.80"/>
    </edge>
    <edge id=":A7_4" function="internal">
        <lane id=":A7_4_0" index="0" speed="6.51" length="9.03" shape="1.60,692.80 1.95,695.25 3.00,697.00 4.75,698.05 7.20,698.40"/>
    </edge>
    <edge id=":A7_5" function="internal">
        <lane id=":A7_5_0" index="0" speed="13.89" length="14.40" shape="1.60,692.80 1.60,707.20"/>
    </edge>
    <edge id=":A8_0" function="internal">
        <lane id=":A8_0_0" index="0" speed="13.89" length="14.40" shape="-1.60,807.20 -1.60,792.80"/>
    </edge>
    <edge id=":A8_1" function="internal">
        <lane id=":A8_1_0" index="0" speed="8.00" length="5.93" shape="-1.60,807.20 -1.05,803.35 0.00,801.60"/>
    </edge>
    <edge id=":A8_6" function="internal">
        <lane id=":A8_6_0" index="0" speed="8.00" length="8.26" shape="0.00,801.60 0.60,800.60 3.35,798.95 7.20,798.40"/>
    </edge>
    <edge id=":A8_2" function="internal">
        <lane id=":A8_2_0" index="0" speed="6.51" length="9.03" shape="7.20,801.60 4.75,801.95 3.00,803.00 1.95,804.75 1.60,807.20"/>
    </edge>
    <edge id=":A8_3" function="internal">
        <lane id=":A8_3_0" index="0" speed="8.00" length="14.19" shape="7.20,801.60 3.35,801.05 0.60,799.40 -1.05,796.65 -1.60,792.80"/>
    </edge>
    <edge id=":A8_4" function="internal">
        <lane id=":A8_4_0" index="0" speed="6.51" length="9.03" shape="1.60,792.80 1.95,795.25 3.00,797.00 4.75,798.05 7.20,798.40"/>
    </edge>
    <edge id=":A8_5" function="internal">
        <lane id=":A8_5_0" index="0" speed="13.89" length="14.40" shape="1.60,792.80 1.60,807.20"/>
    </edge>
    <edge id=":A9_0" function="internal">
        <lane id=":A9_0_0" index="0" speed="13.89" length="14.40" shape="-1.60,907.20 -1.60,892.80"/>
    </edge>
    <edge id=":A9_1" function="internal">
        <lane id=":A9_1_0" index="0" speed="8.00" length="5.93" shape="-1.60,907.20 -1.05,903.35 0.00,901.60"/>
    </edge>
    <edge id=":A9_6" function="internal">
        <lane id=":A9_6_0" index="0" speed="8.00" length="8.26" shape="0.00,901.60 0.60,900.60 3.35,898.95 7.20,898.40"/>
    </edge>
    <edge id=":A9_2" function="internal">
        <lane id=":A9_2_0" index="0" speed="6.51" length="9.03" shape="7.20,901.60 4.75,901.95 3.00,903.00 1.95,904.75 1.60,907.20"/>
    </edge>
    <edge id=":A9_3" function="internal">
        <lane id=":A9_3_0" index="0" speed="8.00" length="14.19" shape="7.20,901.60 3.35,901.05 0.60,899.40 -1.05,896.65 -1.60,892.80"/>
    </edge>
    <edge id=":A9_4" function="internal">
        <lane id=":A9_4_0" index="0" speed="6.51" length="9.03" shape="1.60,892.80 1.95,895.25 3.00,897.00 4.75,898.05 7.20,898.40"/>
    </edge>
    <edge id=":A9_5" function="internal">
        <lane id=":A9_5_0" index="0" speed="13.89" length="14.40" shape="1.60,892.80 1.60,907.20"/>
    </edge>
    <edge id=":B0_0" function="internal">
        <lane id=":B0_0_0" index="0" speed="6.51" length="9.03" shape="98.40,7.20 98.05,4.75 97.00,3.00 95.25,1.95 92.80,1.60"/>
    </edge>
    <edge id=":B0_1" function="internal">
        <lane id=":B0_1_0" index="0" speed="8.00" length="14.19" shape="98.40,7.20 98.95,3.35 100.60,0.60 103.35,-1.05 107.20,-1.60"/>
    </edge>
    <edge id=":B0_2" function="internal">
        <lane id=":B0_2_0" index="0" speed="6.51" length="9.03" shape="107.20,1.60 104.75,1.95 103.00,3.00 101.95,4.75 101.60,7.20"/>
    </edge>
    <edge id=":B0_3" function="internal">
        <lane id=":B0_3_0" index="0" speed="13.89" length="14.40" shape="107.20,1.60 92.80,1.60"/>
    </edge>
    <edge id=":B0_4" function="internal">
        <lane id=":B0_4_0" index="0" speed="13.89" length="14.40" shape="92.80,-1.60 107.20,-1.60"/>
    </edge>
    <edge id=":B0_5" function="internal">
        <lane id=":B0_5_0" index="0" speed="8.00" length="5.93" shape="92.80,-1.60 96.65,-1.05 98.40,0.00"/>
    </edge>
    <edge id=":B0_6" function="internal">
        <lane id=":B0_6_0" index="0" speed="8.00" length="8.26" shape="98.40,0.00 99.40,0.60 101.05,3.35 101.60,7.20"/>
    </edge>
    <edge id=":B1_0" function="internal">
        <lane id=":B1_0_0" index="0" speed="6.51" length="9.03" shape="98.40,107.20 98.05,104.75 97.00,103.00 95.25,101.95 92.80,101.60"/>
    </edge>
    <edge id=":B1_1" function="internal">
        <lane id=":B1_1_0" index="0" speed="13.89" length="14.40" shape="98.40,107.20 98.40,92.80"/>
    </edge>
    <edge id=":B1_2" function="internal">
        <lane id=":B1_2_0" index="0" speed="8.00" length="5.93" shape="98.40,107.20 98.95,103.35 100.00,101.60"/>
    </edge>
    <edge id=":B1_12" function="internal">
        <lane id=":B1_12_0" index="0" speed="8.00" length="8.26" shape="100.00,101.60 100.60,100.60 103.35,98.95 107.20,98.40"/>
    </edge>
    <edge id=":B1_3" function="internal">
        <lane id=":B1_3_0" index="0" speed="6.51" length="9.03" shape="107.20,101.60 104.75,101.95 103.00,103.00 101.95,104.75 101.60,107.20"/>
    </edge>
    <edge id=":B1_4" function="internal">
        <lane id=":B1_4_0" index="0" speed="13.89" length="14.40" shape="107.20,101.60 92.80,101.60"/>
    </edge>
    <edge id=":B1_5" function="internal">
        <lane id=":B1_5_0" index="0" speed="8.00" length="14.19" shape="107.20,101.60 103.35,101.05 100.60,99.40 98.95,96.65 98.40,92.80"/>
    </edge>
    <edge id=":B1_6" function="internal">
        <lane id=":B1_6_0" index="0" speed="6.51" length="9.03" shape="101.60,92.80 101.95,95.25 103.00,97.00 104.75,98.05 107.20,98.40"/>
    </edge>
    <edge id=":B1_7" function="internal">
        <lane id=":B1_7_0" index="0" speed="13.89" length="14.40" shape="101.60,92.80 101.60,107.20"/>
    </edge>
    <edge id=":B1_8" function="internal">